LTspice 24.0.9 for Windows
Circuit: * C:\Users\sqrt\Desktop\SElec\SElec-lab2\2-filtro-passa-banda\filtro-passa-banda.asc
Start Time: Fri Mar  8 15:35:29 2024
solver = Normal
Maximum thread count: 12
tnom = 27
temp = 27
method = modified trap
Direct Newton iteration for .op point succeeded.
Total elapsed time: 0.060 seconds.

